  Page 1                                    Fri Feb 14 14:34:04 2025

  ******************************************************************
  *                           E P A N E T                          *
  *                   Hydraulic and Water Quality                  *
  *                   Analysis for Pipe Networks                   *
  *                         Version 2.2                            *
  ******************************************************************
  
  Analysis begun Fri Feb 14 14:34:04 2025

  Analysis ended Fri Feb 14 14:34:04 2025
